loadData33.dss
!Load definitions
New Load.4 Bus1=2.1 Phases=1 kW=0 kvar=0 kv=7.31 vminpu=0.9 vmaxpu=1.1
New Load.5 Bus1=2.2 Phases=1 kW=0 kvar=0 kv=7.31 vminpu=0.9 vmaxpu=1.1
New Load.6 Bus1=2.3 Phases=1 kW=0 kvar=0 kv=7.31 vminpu=0.9 vmaxpu=1.1
New Load.7 Bus1=3.1 Phases=1 kW=0 kvar=0 kv=7.31 vminpu=0.9 vmaxpu=1.1
New Load.8 Bus1=3.2 Phases=1 kW=0 kvar=0 kv=7.31 vminpu=0.9 vmaxpu=1.1
New Load.9 Bus1=3.3 Phases=1 kW=0 kvar=0 kv=7.31 vminpu=0.9 vmaxpu=1.1
New Load.10 Bus1=4.1 Phases=1 kW=0 kvar=0 kv=7.31 vminpu=0.9 vmaxpu=1.1
New Load.11 Bus1=4.2 Phases=1 kW=0 kvar=0 kv=7.31 vminpu=0.9 vmaxpu=1.1
New Load.12 Bus1=4.3 Phases=1 kW=0 kvar=0 kv=7.31 vminpu=0.9 vmaxpu=1.1
New Load.13 Bus1=5.1 Phases=1 kW=0 kvar=0 kv=7.31 vminpu=0.9 vmaxpu=1.1
New Load.14 Bus1=5.2 Phases=1 kW=0 kvar=0 kv=7.31 vminpu=0.9 vmaxpu=1.1
New Load.15 Bus1=5.3 Phases=1 kW=0 kvar=0 kv=7.31 vminpu=0.9 vmaxpu=1.1
New Load.16 Bus1=6.1 Phases=1 kW=0 kvar=0 kv=7.31 vminpu=0.9 vmaxpu=1.1
New Load.17 Bus1=6.2 Phases=1 kW=0 kvar=0 kv=7.31 vminpu=0.9 vmaxpu=1.1
New Load.18 Bus1=6.3 Phases=1 kW=0 kvar=0 kv=7.31 vminpu=0.9 vmaxpu=1.1
New Load.19 Bus1=7.1 Phases=1 kW=0 kvar=0 kv=7.31 vminpu=0.9 vmaxpu=1.1
New Load.20 Bus1=7.2 Phases=1 kW=0 kvar=0 kv=7.31 vminpu=0.9 vmaxpu=1.1
New Load.21 Bus1=7.3 Phases=1 kW=0 kvar=0 kv=7.31 vminpu=0.9 vmaxpu=1.1
New Load.22 Bus1=8.1 Phases=1 kW=0 kvar=0 kv=7.31 vminpu=0.9 vmaxpu=1.1
New Load.23 Bus1=8.2 Phases=1 kW=0 kvar=0 kv=7.31 vminpu=0.9 vmaxpu=1.1
New Load.24 Bus1=8.3 Phases=1 kW=0 kvar=0 kv=7.31 vminpu=0.9 vmaxpu=1.1
New Load.25 Bus1=9.1 Phases=1 kW=0 kvar=0 kv=7.31 vminpu=0.9 vmaxpu=1.1
New Load.26 Bus1=9.2 Phases=1 kW=0 kvar=0 kv=7.31 vminpu=0.9 vmaxpu=1.1
New Load.27 Bus1=9.3 Phases=1 kW=0 kvar=0 kv=7.31 vminpu=0.9 vmaxpu=1.1
New Load.28 Bus1=10.1 Phases=1 kW=0 kvar=0 kv=7.31 vminpu=0.9 vmaxpu=1.1
New Load.29 Bus1=10.2 Phases=1 kW=0 kvar=0 kv=7.31 vminpu=0.9 vmaxpu=1.1
New Load.30 Bus1=10.3 Phases=1 kW=0 kvar=0 kv=7.31 vminpu=0.9 vmaxpu=1.1
New Load.31 Bus1=11.1 Phases=1 kW=0 kvar=0 kv=7.31 vminpu=0.9 vmaxpu=1.1
New Load.32 Bus1=11.2 Phases=1 kW=0 kvar=0 kv=7.31 vminpu=0.9 vmaxpu=1.1
New Load.33 Bus1=11.3 Phases=1 kW=0 kvar=0 kv=7.31 vminpu=0.9 vmaxpu=1.1
New Load.34 Bus1=12.1 Phases=1 kW=0 kvar=0 kv=7.31 vminpu=0.9 vmaxpu=1.1
New Load.35 Bus1=12.2 Phases=1 kW=0 kvar=0 kv=7.31 vminpu=0.9 vmaxpu=1.1
New Load.36 Bus1=12.3 Phases=1 kW=0 kvar=0 kv=7.31 vminpu=0.9 vmaxpu=1.1
New Load.37 Bus1=13.1 Phases=1 kW=0 kvar=0 kv=7.31 vminpu=0.9 vmaxpu=1.1
New Load.38 Bus1=13.2 Phases=1 kW=0 kvar=0 kv=7.31 vminpu=0.9 vmaxpu=1.1
New Load.39 Bus1=13.3 Phases=1 kW=0 kvar=0 kv=7.31 vminpu=0.9 vmaxpu=1.1
New Load.40 Bus1=14.1 Phases=1 kW=0 kvar=0 kv=7.31 vminpu=0.9 vmaxpu=1.1
New Load.41 Bus1=14.2 Phases=1 kW=0 kvar=0 kv=7.31 vminpu=0.9 vmaxpu=1.1
New Load.42 Bus1=14.3 Phases=1 kW=0 kvar=0 kv=7.31 vminpu=0.9 vmaxpu=1.1
New Load.43 Bus1=15.1 Phases=1 kW=0 kvar=0 kv=7.31 vminpu=0.9 vmaxpu=1.1
New Load.44 Bus1=15.2 Phases=1 kW=0 kvar=0 kv=7.31 vminpu=0.9 vmaxpu=1.1
New Load.45 Bus1=15.3 Phases=1 kW=0 kvar=0 kv=7.31 vminpu=0.9 vmaxpu=1.1
New Load.46 Bus1=16.1 Phases=1 kW=0 kvar=0 kv=7.31 vminpu=0.9 vmaxpu=1.1
New Load.47 Bus1=16.2 Phases=1 kW=0 kvar=0 kv=7.31 vminpu=0.9 vmaxpu=1.1
New Load.48 Bus1=16.3 Phases=1 kW=0 kvar=0 kv=7.31 vminpu=0.9 vmaxpu=1.1
New Load.49 Bus1=17.1 Phases=1 kW=0 kvar=0 kv=7.31 vminpu=0.9 vmaxpu=1.1
New Load.50 Bus1=17.2 Phases=1 kW=0 kvar=0 kv=7.31 vminpu=0.9 vmaxpu=1.1
New Load.51 Bus1=17.3 Phases=1 kW=0 kvar=0 kv=7.31 vminpu=0.9 vmaxpu=1.1
New Load.52 Bus1=18.1 Phases=1 kW=0 kvar=0 kv=7.31 vminpu=0.9 vmaxpu=1.1
New Load.53 Bus1=18.2 Phases=1 kW=0 kvar=0 kv=7.31 vminpu=0.9 vmaxpu=1.1
New Load.54 Bus1=18.3 Phases=1 kW=0 kvar=0 kv=7.31 vminpu=0.9 vmaxpu=1.1
New Load.55 Bus1=19.1 Phases=1 kW=0 kvar=0 kv=7.31 vminpu=0.9 vmaxpu=1.1
New Load.56 Bus1=19.2 Phases=1 kW=0 kvar=0 kv=7.31 vminpu=0.9 vmaxpu=1.1
New Load.57 Bus1=19.3 Phases=1 kW=0 kvar=0 kv=7.31 vminpu=0.9 vmaxpu=1.1
New Load.58 Bus1=20.1 Phases=1 kW=0 kvar=0 kv=7.31 vminpu=0.9 vmaxpu=1.1
New Load.59 Bus1=20.2 Phases=1 kW=0 kvar=0 kv=7.31 vminpu=0.9 vmaxpu=1.1
New Load.60 Bus1=20.3 Phases=1 kW=0 kvar=0 kv=7.31 vminpu=0.9 vmaxpu=1.1
New Load.61 Bus1=21.1 Phases=1 kW=0 kvar=0 kv=7.31 vminpu=0.9 vmaxpu=1.1
New Load.62 Bus1=21.2 Phases=1 kW=0 kvar=0 kv=7.31 vminpu=0.9 vmaxpu=1.1
New Load.63 Bus1=21.3 Phases=1 kW=0 kvar=0 kv=7.31 vminpu=0.9 vmaxpu=1.1
New Load.64 Bus1=22.1 Phases=1 kW=0 kvar=0 kv=7.31 vminpu=0.9 vmaxpu=1.1
New Load.65 Bus1=22.2 Phases=1 kW=0 kvar=0 kv=7.31 vminpu=0.9 vmaxpu=1.1
New Load.66 Bus1=22.3 Phases=1 kW=0 kvar=0 kv=7.31 vminpu=0.9 vmaxpu=1.1
New Load.67 Bus1=23.1 Phases=1 kW=0 kvar=0 kv=7.31 vminpu=0.9 vmaxpu=1.1
New Load.68 Bus1=23.2 Phases=1 kW=0 kvar=0 kv=7.31 vminpu=0.9 vmaxpu=1.1
New Load.69 Bus1=23.3 Phases=1 kW=0 kvar=0 kv=7.31 vminpu=0.9 vmaxpu=1.1
New Load.70 Bus1=24.1 Phases=1 kW=0 kvar=0 kv=7.31 vminpu=0.9 vmaxpu=1.1
New Load.71 Bus1=24.2 Phases=1 kW=0 kvar=0 kv=7.31 vminpu=0.9 vmaxpu=1.1
New Load.72 Bus1=24.3 Phases=1 kW=0 kvar=0 kv=7.31 vminpu=0.9 vmaxpu=1.1
New Load.73 Bus1=25.1 Phases=1 kW=0 kvar=0 kv=7.31 vminpu=0.9 vmaxpu=1.1
New Load.74 Bus1=25.2 Phases=1 kW=0 kvar=0 kv=7.31 vminpu=0.9 vmaxpu=1.1
New Load.75 Bus1=25.3 Phases=1 kW=0 kvar=0 kv=7.31 vminpu=0.9 vmaxpu=1.1
New Load.76 Bus1=26.1 Phases=1 kW=0 kvar=0 kv=7.31 vminpu=0.9 vmaxpu=1.1
New Load.77 Bus1=26.2 Phases=1 kW=0 kvar=0 kv=7.31 vminpu=0.9 vmaxpu=1.1
New Load.78 Bus1=26.3 Phases=1 kW=0 kvar=0 kv=7.31 vminpu=0.9 vmaxpu=1.1
New Load.79 Bus1=27.1 Phases=1 kW=0 kvar=0 kv=7.31 vminpu=0.9 vmaxpu=1.1
New Load.80 Bus1=27.2 Phases=1 kW=0 kvar=0 kv=7.31 vminpu=0.9 vmaxpu=1.1
New Load.81 Bus1=27.3 Phases=1 kW=0 kvar=0 kv=7.31 vminpu=0.9 vmaxpu=1.1
New Load.82 Bus1=28.1 Phases=1 kW=0 kvar=0 kv=7.31 vminpu=0.9 vmaxpu=1.1
New Load.83 Bus1=28.2 Phases=1 kW=0 kvar=0 kv=7.31 vminpu=0.9 vmaxpu=1.1
New Load.84 Bus1=28.3 Phases=1 kW=0 kvar=0 kv=7.31 vminpu=0.9 vmaxpu=1.1
New Load.85 Bus1=29.1 Phases=1 kW=0 kvar=0 kv=7.31 vminpu=0.9 vmaxpu=1.1
New Load.86 Bus1=29.2 Phases=1 kW=0 kvar=0 kv=7.31 vminpu=0.9 vmaxpu=1.1
New Load.87 Bus1=29.3 Phases=1 kW=0 kvar=0 kv=7.31 vminpu=0.9 vmaxpu=1.1
New Load.88 Bus1=30.1 Phases=1 kW=0 kvar=0 kv=7.31 vminpu=0.9 vmaxpu=1.1
New Load.89 Bus1=30.2 Phases=1 kW=0 kvar=0 kv=7.31 vminpu=0.9 vmaxpu=1.1
New Load.90 Bus1=30.3 Phases=1 kW=0 kvar=0 kv=7.31 vminpu=0.9 vmaxpu=1.1
New Load.91 Bus1=31.1 Phases=1 kW=0 kvar=0 kv=7.31 vminpu=0.9 vmaxpu=1.1
New Load.92 Bus1=31.2 Phases=1 kW=0 kvar=0 kv=7.31 vminpu=0.9 vmaxpu=1.1
New Load.93 Bus1=31.3 Phases=1 kW=0 kvar=0 kv=7.31 vminpu=0.9 vmaxpu=1.1
New Load.94 Bus1=32.1 Phases=1 kW=0 kvar=0 kv=7.31 vminpu=0.9 vmaxpu=1.1
New Load.95 Bus1=32.2 Phases=1 kW=0 kvar=0 kv=7.31 vminpu=0.9 vmaxpu=1.1
New Load.96 Bus1=32.3 Phases=1 kW=0 kvar=0 kv=7.31 vminpu=0.9 vmaxpu=1.1
New Load.97 Bus1=33.1 Phases=1 kW=0 kvar=0 kv=7.31 vminpu=0.9 vmaxpu=1.1
New Load.98 Bus1=33.2 Phases=1 kW=0 kvar=0 kv=7.31 vminpu=0.9 vmaxpu=1.1
New Load.99 Bus1=33.3 Phases=1 kW=0 kvar=0 kv=7.31 vminpu=0.9 vmaxpu=1.1
